Referencia/OpenDSS/IEEETestCases/13Bus/IEEE13Nodeckt_Power_elem_kVA.txt

CIRCUIT ELEMENT POWER FLOW

(Power Flow into element from indicated Bus)

Power Delivery Elements

  Bus     Phase     kW     +j   kvar         kVA         PF

ELEMENT = "Vsource.SOURCE"
SOURCEBUS     1      -754.6 +j   -201.4      781.0       0.9662
SOURCEBUS     2      -967.3 +j   -228.9      994.1       0.9731
SOURCEBUS     3      -837.1 +j   -399.5      927.5       0.9025
   TERMINAL TOTAL . -2559.0 +j   -829.9     2690.2       0.9512
SOURCEBUS     0         0.0 +j      0.0        0.0       1.0000
SOURCEBUS     0         0.0 +j      0.0        0.0       1.0000
SOURCEBUS     0         0.0 +j      0.0        0.0       1.0000
   TERMINAL TOTAL .     0.0 +j      0.0        0.0       1.0000

ELEMENT = "Transformer.SUB"
SOURCEBUS     1       754.6 +j    201.4      781.0       0.9662
SOURCEBUS     2       967.3 +j    228.9      994.1       0.9731
SOURCEBUS     3       837.1 +j    399.5      927.5       0.9025
SOURCEBUS     0         0.0 +j      0.0        0.0       1.0000
   TERMINAL TOTAL .  2559.0 +j    829.9     2690.2       0.9512
650           1      -782.1 +j   -375.8      867.7       0.9014
650           2      -891.8 +j    -90.4      896.4       0.9949
650           3      -885.1 +j   -363.6      956.9       0.9250
650           0         0.0 +j      0.0        0.0       1.0000
   TERMINAL TOTAL . -2559.0 +j   -829.8     2690.1       0.9512

ELEMENT = "Transformer.REG1"
650           1       782.1 +j    375.8      867.7       0.9014
650           0         0.0 +j      0.0        0.0       1.0000
   TERMINAL TOTAL .   782.1 +j    375.8      867.7       0.9014
RG60          1      -782.0 +j   -375.7      867.6       0.9014
RG60          0         0.0 +j      0.0        0.0       1.0000
   TERMINAL TOTAL .  -782.0 +j   -375.7      867.6       0.9014

ELEMENT = "Transformer.REG2"
650           2       891.8 +j     90.4      896.4       0.9949
650           0         0.0 +j      0.0        0.0       1.0000
   TERMINAL TOTAL .   891.8 +j     90.4      896.4       0.9949
RG60          2      -891.8 +j    -90.3      896.3       0.9949
RG60          0         0.0 +j      0.0        0.0       1.0000
   TERMINAL TOTAL .  -891.8 +j    -90.3      896.3       0.9949

ELEMENT = "Transformer.REG3"
650           3       885.1 +j    363.6      956.9       0.9250
650           0         0.0 +j      0.0        0.0       1.0000
   TERMINAL TOTAL .   885.1 +j    363.6      956.9       0.9250
RG60          3      -885.1 +j   -363.6      956.8       0.9250
RG60          0         0.0 +j      0.0        0.0       1.0000
   TERMINAL TOTAL .  -885.1 +j   -363.6      956.8       0.9250

ELEMENT = "Transformer.XFM1"
633           1       162.7 +j    114.8      199.1       0.8170
633           2       121.5 +j     92.7      152.9       0.7949
633           3       121.5 +j     92.8      152.9       0.7948
633           0         0.0 +j      0.0        0.0       1.0000
   TERMINAL TOTAL .   405.7 +j    300.3      504.8       0.8037
634           1      -160.0 +j   -110.0      194.2       0.8240
634           2      -120.0 +j    -90.0      150.0       0.8000
634           3      -120.0 +j    -90.0      150.0       0.8000
634           0         0.0 +j      0.0        0.0       1.0000
   TERMINAL TOTAL .  -400.0 +j   -290.0      494.1       0.8096

ELEMENT = "Capacitor.CAP1"
675           1         0.0 +j   -189.6      189.6      -0.0000
675           2        -0.0 +j   -211.6      211.6       0.0000
675           3         0.0 +j   -194.9      194.9       1.0000
   TERMINAL TOTAL .    -0.0 +j   -596.1      596.1       0.0000
675           0         0.0 +j      0.0        0.0       1.0000
675           0         0.0 +j      0.0        0.0       1.0000
675           0         0.0 +j      0.0        0.0       1.0000
   TERMINAL TOTAL .     0.0 +j      0.0        0.0       1.0000

ELEMENT = "Capacitor.CAP2"
611           2         0.0 +j   -104.9      104.9       1.0000
   TERMINAL TOTAL .     0.0 +j   -104.9      104.9       1.0000
611           0         0.0 +j      0.0        0.0       1.0000
   TERMINAL TOTAL .     0.0 +j      0.0        0.0       1.0000

ELEMENT = "Capacitor.CAP645"
645           2        -0.0 +j    -50.9       50.9       0.0000
645           2        -0.0 +j    -50.9       50.9       0.0000
645           3         0.0 +j    -50.6       50.6       1.0000
   TERMINAL TOTAL .    -0.0 +j   -152.4      152.4       0.0000
645           0         0.0 +j      0.0        0.0       1.0000
645           0         0.0 +j      0.0        0.0       1.0000
645           0         0.0 +j      0.0        0.0       1.0000
   TERMINAL TOTAL .     0.0 +j      0.0        0.0       1.0000

ELEMENT = "Capacitor.CAP692"
692           3         0.0 +j    -16.3       16.3      -0.0000
692           1         0.0 +j    -15.9       15.9       1.0000
692           3         0.0 +j    -16.3       16.3      -0.0000
   TERMINAL TOTAL .     0.0 +j    -48.6       48.6      -0.0000
692           0         0.0 +j      0.0        0.0       1.0000
692           0         0.0 +j      0.0        0.0       1.0000
692           0         0.0 +j      0.0        0.0       1.0000
   TERMINAL TOTAL .     0.0 +j      0.0        0.0       1.0000

ELEMENT = "Line.650632"
RG60          1       782.0 +j    375.7      867.6       0.9014
RG60          2       891.8 +j     90.3      896.3       0.9949
RG60          3       885.1 +j    363.6      956.8       0.9250
   TERMINAL TOTAL .  2558.8 +j    829.6     2690.0       0.9513
632           1      -765.8 +j   -345.3      840.1       0.9116
632           2      -891.7 +j    -54.5      893.4       0.9981
632           3      -872.2 +j   -333.1      933.7       0.9342
   TERMINAL TOTAL . -2529.8 +j   -732.9     2633.8       0.9605

ELEMENT = "Line.632670"
632           1       602.8 +j    230.0      645.2       0.9343
632           2       443.8 +j    -61.9      448.1      -0.9904
632           3       674.6 +j    156.8      692.6       0.9740
   TERMINAL TOTAL .  1721.2 +j    324.9     1751.6       0.9826
670           1      -600.8 +j   -223.1      640.8       0.9375
670           2      -444.6 +j     64.6      449.3      -0.9896
670           3      -671.2 +j   -151.2      688.0       0.9756
   TERMINAL TOTAL . -1716.6 +j   -309.6     1744.3       0.9841

ELEMENT = "Line.670671"
670           1       583.8 +j    213.1      621.4       0.9394
670           2       378.6 +j   -102.6      392.3      -0.9652
670           3       554.2 +j     83.1      560.4       0.9889
   TERMINAL TOTAL .  1516.6 +j    193.6     1528.9       0.9920
671           1      -578.9 +j   -199.3      612.2       0.9455
671           2      -380.6 +j    107.7      395.5      -0.9622
671           3      -549.6 +j    -77.1      555.0       0.9903
   TERMINAL TOTAL . -1509.0 +j   -168.7     1518.4       0.9938

ELEMENT = "Line.671680"
671           1        -0.0 +j     -0.0        0.0       0.0061
671           2        -0.0 +j     -0.0        0.0       0.0037
671           3         0.0 +j     -0.0        0.0      -0.0099
   TERMINAL TOTAL .     0.0 +j     -0.0        0.0      -0.0000
680           1        -0.0 +j     -0.0        0.0       0.1924
680           2         0.0 +j     -0.0        0.0      -0.5984
680           3        -0.0 +j     -0.0        0.0       0.9998
   TERMINAL TOTAL .    -0.0 +j     -0.0        0.0       0.1777

ELEMENT = "Line.632633"
632           1       163.0 +j    115.4      199.7       0.8163
632           2       121.7 +j     93.0      153.1       0.7944
632           3       121.9 +j     93.1      153.3       0.7948
   TERMINAL TOTAL .   406.6 +j    301.4      506.1       0.8033
633           1      -162.7 +j   -114.8      199.1       0.8170
633           2      -121.5 +j    -92.7      152.9       0.7949
633           3      -121.5 +j    -92.8      152.9       0.7948
   TERMINAL TOTAL .  -405.7 +j   -300.3      504.8       0.8037

ELEMENT = "Line.632645"
632           3        75.7 +j     83.2      112.5       0.6731
632           2       326.3 +j     23.4      327.1       0.9974
   TERMINAL TOTAL .   402.0 +j    106.6      415.9       0.9666
645           3       -75.6 +j    -83.1      112.4       0.6730
645           2      -324.1 +j    -21.4      324.8       0.9978
   TERMINAL TOTAL .  -399.7 +j   -104.6      413.1       0.9674

ELEMENT = "Line.645646"
645           3        75.6 +j    133.7      153.7       0.4922
645           2       154.1 +j     -1.8      154.1      -0.9999
   TERMINAL TOTAL .   229.7 +j    131.9      264.9       0.8671
646           3       -75.4 +j   -133.5      153.3       0.4915
646           2      -153.8 +j      2.0      153.8      -0.9999
   TERMINAL TOTAL .  -229.2 +j   -131.5      264.2       0.8673

ELEMENT = "Line.692675"
692           1       286.2 +j    -50.8      290.7      -0.9846
692           2        68.2 +j   -151.2      165.9      -0.4110
692           3       290.8 +j     17.2      291.3       0.9983
   TERMINAL TOTAL .   645.2 +j   -184.9      671.1      -0.9613
675           1      -285.0 +j     51.6      289.6      -0.9840
675           2       -68.0 +j    151.6      166.1      -0.4094
675           3      -290.1 +j    -17.1      290.6       0.9983
   TERMINAL TOTAL .  -643.1 +j    186.0      669.4      -0.9606

ELEMENT = "Line.671684"
671           1       121.4 +j     81.2      146.1       0.8310
671           2       174.8 +j    -22.1      176.2      -0.9921
   TERMINAL TOTAL .   296.1 +j     59.1      302.0       0.9806
684           1      -121.0 +j    -81.0      145.6       0.8310
684           2      -174.5 +j     22.6      175.9      -0.9917
   TERMINAL TOTAL .  -295.5 +j    -58.4      301.2       0.9810

ELEMENT = "Line.684611"
684           2       174.5 +j    -22.6      175.9      -0.9917
   TERMINAL TOTAL .   174.5 +j    -22.6      175.9      -0.9917
611           2      -174.1 +j     22.9      175.6      -0.9914
   TERMINAL TOTAL .  -174.1 +j     22.9      175.6      -0.9914

ELEMENT = "Line.684652"
684           1       121.0 +j     81.0      145.6       0.8310
   TERMINAL TOTAL .   121.0 +j     81.0      145.6       0.8310
652           1      -120.2 +j    -80.7      144.8       0.8300
   TERMINAL TOTAL .  -120.2 +j    -80.7      144.8       0.8300

ELEMENT = "Line.671692"
671           1       326.8 +j     54.9      331.4       0.9862
671           2        68.2 +j   -151.2      165.9      -0.4110
671           3       417.8 +j     11.8      418.0       0.9996
   TERMINAL TOTAL .   812.8 +j    -84.5      817.2      -0.9946
692           1      -326.8 +j    -54.9      331.4       0.9862
692           2       -68.2 +j    151.2      165.9      -0.4110
692           3      -417.8 +j    -11.8      418.0       0.9996
   TERMINAL TOTAL .  -812.8 +j     84.5      817.2      -0.9946

= = = = = = = = = = = = = = = = = = =  = = = = = = = = = = =  = =

Power Conversion Elements

  Bus     Phase     kW   +j  kvar         kVA         PF

ELEMENT = "Load.671"
671           1     130.7 +j   63.1      145.1       0.9004
671           2     137.6 +j   65.6      152.4       0.9027
671           3     131.7 +j   65.3      147.0       0.8960
  TERMINAL TOTAL  .   400.0 +j    194.0      444.6       0.8997

ELEMENT = "Load.634A"
634           1     160.0 +j  110.0      194.2       0.8240
634           0       0.0 +j    0.0        0.0       1.0000
  TERMINAL TOTAL  .   160.0 +j    110.0      194.2       0.8240

ELEMENT = "Load.634B"
634           2     120.0 +j   90.0      150.0       0.8000
634           0       0.0 +j    0.0        0.0       1.0000
  TERMINAL TOTAL  .   120.0 +j     90.0      150.0       0.8000

ELEMENT = "Load.634C"
634           3     120.0 +j   90.0      150.0       0.8000
634           0       0.0 +j    0.0        0.0       1.0000
  TERMINAL TOTAL  .   120.0 +j     90.0      150.0       0.8000

ELEMENT = "Load.645"
645           2     170.0 +j  125.0      211.0       0.8056
645           0       0.0 +j    0.0        0.0       1.0000
  TERMINAL TOTAL  .   170.0 +j    125.0      211.0       0.8056

ELEMENT = "Load.646"
646           2     153.8 +j   -2.0      153.8      -0.9999
646           3      75.4 +j  133.5      153.3       0.4915
  TERMINAL TOTAL  .   229.2 +j    131.5      264.2       0.8673

ELEMENT = "Load.692"
692           3     127.0 +j   27.3      129.9       0.9777
692           1      40.6 +j  121.7      128.3       0.3167
  TERMINAL TOTAL  .   167.7 +j    148.9      224.3       0.7476

ELEMENT = "Load.675A"
675           1     285.0 +j  138.0      316.7       0.9000
675           0       0.0 +j    0.0        0.0       1.0000
  TERMINAL TOTAL  .   285.0 +j    138.0      316.7       0.9000

ELEMENT = "Load.675B"
675           2      68.0 +j   60.0       90.7       0.7498
675           0       0.0 +j    0.0        0.0       1.0000
  TERMINAL TOTAL  .    68.0 +j     60.0       90.7       0.7498

ELEMENT = "Load.675C"
675           3     290.0 +j  212.0      359.3       0.8073
675           0       0.0 +j    0.0        0.0       1.0000
  TERMINAL TOTAL  .   290.0 +j    212.0      359.3       0.8073

ELEMENT = "Load.611"
611           2     174.1 +j   81.9      192.4       0.9048
611           0       0.0 +j    0.0        0.0       1.0000
  TERMINAL TOTAL  .   174.1 +j     81.9      192.4       0.9048

ELEMENT = "Load.652"
652           1     120.2 +j   80.7      144.8       0.8300
652           0       0.0 +j    0.0        0.0       1.0000
  TERMINAL TOTAL  .   120.2 +j     80.7      144.8       0.8300

ELEMENT = "Load.670A"
670           1      17.0 +j   10.0       19.7       0.8619
670           0       0.0 +j    0.0        0.0       1.0000
  TERMINAL TOTAL  .    17.0 +j     10.0       19.7       0.8619

ELEMENT = "Load.670B"
670           2      66.0 +j   38.0       76.2       0.8666
670           0       0.0 +j    0.0        0.0       1.0000
  TERMINAL TOTAL  .    66.0 +j     38.0       76.2       0.8666

ELEMENT = "Load.670C"
670           3     117.0 +j   68.0      135.3       0.8646
670           0       0.0 +j    0.0        0.0       1.0000
  TERMINAL TOTAL  .   117.0 +j     68.0      135.3       0.8646


Total Circuit Losses =   54.7 +j  153.6
