Referencia/OpenDSS/IEEETestCases/13Bus/IEEE13Nodeckt_Power_seq_kVA.txt

SYMMETRICAL COMPONENT POWERS BY CIRCUIT ELEMENT (first 3 phases)                                     Excess Power

Element            Term    P1(kW)   Q1(kvar)       P2         Q2      P0      Q0       P_Norm      Q_Norm     P_Emerg    Q_Emerg

"Vsource.SOURCE"    1    -2559.0     -829.9        0.0        0.0     0.0     0.0
"Vsource.SOURCE"    2        0.0        0.0        0.0        0.0     0.0     0.0
"Transformer.SUB"   1     2559.0      829.9       -0.0       -0.0     0.0     0.0        0.0        0.0        0.0        0.0
"Transformer.SUB"   2    -2559.0     -829.8        0.0        0.0     0.0     0.0
"Transformer.REG1"  1        0.0        0.0        0.0        0.0     0.0     0.0        0.0        0.0        0.0        0.0
"Transformer.REG1"  2        0.0        0.0        0.0        0.0     0.0     0.0
"Transformer.REG2"  1        0.0        0.0        0.0        0.0     0.0     0.0        0.0        0.0        0.0        0.0
"Transformer.REG2"  2        0.0        0.0        0.0        0.0     0.0     0.0
"Transformer.REG3"  1        0.0        0.0        0.0        0.0     0.0     0.0        0.0        0.0        0.0        0.0
"Transformer.REG3"  2        0.0        0.0        0.0        0.0     0.0     0.0
"Transformer.XFM1"  1      406.2      300.3       -0.1        0.2    -0.4    -0.2       33.8       25.0        0.0        0.0
"Transformer.XFM1"  2     -400.6     -290.2        0.2       -0.1     0.4     0.3
"Capacitor.CAP1"    1        0.0     -595.7       -0.0       -0.1     0.0    -0.3        0.0        0.0        0.0        0.0
"Capacitor.CAP1"    2        0.0        0.0        0.0        0.0     0.0     0.0
"Capacitor.CAP2"    1        0.0        0.0        0.0        0.0     0.0     0.0        0.0        0.0        0.0        0.0
"Capacitor.CAP2"    2        0.0        0.0        0.0        0.0     0.0     0.0
"Capacitor.CAP645"  1       -0.0      -50.1       -0.0      -50.1     0.0   -52.1       -0.0      -34.7        0.0        0.0
"Capacitor.CAP645"  2        0.0        0.0        0.0        0.0     0.0     0.0
"Capacitor.CAP692"  1        0.0      -16.2        0.0      -16.2     0.0   -16.1        0.0        0.0        0.0        0.0
"Capacitor.CAP692"  2        0.0        0.0        0.0        0.0     0.0     0.0
"Line.650632"       1     2559.4      827.4       -0.2        1.5    -0.3     0.8        0.0        0.0        0.0        0.0
"Line.650632"       2    -2531.7     -736.0        0.8        1.8     1.1     1.3
"Line.632670"       1     1725.3      325.3       -2.1       -0.6    -2.0     0.2        0.0        0.0        0.0        0.0
"Line.632670"       2    -1721.5     -311.7        2.6        1.6     2.3     0.6
"Line.670671"       1     1521.8      196.0       -2.7       -0.9    -2.5    -1.6        0.0        0.0        0.0        0.0
"Line.670671"       2    -1516.1     -175.2        3.6        2.5     3.5     4.1
"Line.671680"       1        0.0       -0.0       -0.0       -0.0    -0.0    -0.0        0.0        0.0        0.0        0.0
"Line.671680"       2       -0.0       -0.0        0.0        0.0     0.0    -0.0
"Line.632633"       1      407.0      301.3       -0.1        0.2    -0.4    -0.2        0.0        0.0        0.0        0.0
"Line.632633"       2     -406.2     -300.3        0.1       -0.2     0.4     0.2
"Line.632645"       1        0.0        0.0        0.0        0.0     0.0     0.0        0.0        0.0        0.0        0.0
"Line.632645"       2        0.0        0.0        0.0        0.0     0.0     0.0
"Line.645646"       1        0.0        0.0        0.0        0.0     0.0     0.0        0.0        0.0        0.0        0.0
"Line.645646"       2        0.0        0.0        0.0        0.0     0.0     0.0
"Line.692675"       1      652.9     -183.2       -1.9       -1.5    -5.8    -0.2        0.0        0.0        0.0        0.0
"Line.692675"       2     -651.6      184.0        2.0        1.7     6.5     0.4
"Line.671684"       1        0.0        0.0        0.0        0.0     0.0     0.0        0.0        0.0        0.0        0.0
"Line.671684"       2        0.0        0.0        0.0        0.0     0.0     0.0
"Line.684611"       1        0.0        0.0        0.0        0.0     0.0     0.0        0.0        0.0        0.0        0.0
"Line.684611"       2        0.0        0.0        0.0        0.0     0.0     0.0
"Line.684652"       1        0.0        0.0        0.0        0.0     0.0     0.0        0.0        0.0        0.0        0.0
"Line.684652"       2        0.0        0.0        0.0        0.0     0.0     0.0
"Line.671692"       1      822.2      -81.6       -4.0       -3.0    -5.4     0.1        0.0        0.0        0.0        0.0
"Line.671692"       2     -822.2       81.6        4.0        3.0     5.4    -0.1
"Load.671"          1      400.0      194.0       -0.0       -0.0    -0.0    -0.0
"Load.634A"         1        0.0        0.0        0.0        0.0     0.0     0.0
"Load.634B"         1        0.0        0.0        0.0        0.0     0.0     0.0
"Load.634C"         1        0.0        0.0        0.0        0.0     0.0     0.0
"Load.645"          1        0.0        0.0        0.0        0.0     0.0     0.0
"Load.646"          1        0.0        0.0        0.0        0.0     0.0     0.0
"Load.692"          1        0.0        0.0        0.0        0.0     0.0     0.0
"Load.675A"         1        0.0        0.0        0.0        0.0     0.0     0.0
"Load.675B"         1        0.0        0.0        0.0        0.0     0.0     0.0
"Load.675C"         1        0.0        0.0        0.0        0.0     0.0     0.0
"Load.611"          1        0.0        0.0        0.0        0.0     0.0     0.0
"Load.652"          1        0.0        0.0        0.0        0.0     0.0     0.0
"Load.670A"         1        0.0        0.0        0.0        0.0     0.0     0.0
"Load.670B"         1        0.0        0.0        0.0        0.0     0.0     0.0
"Load.670C"         1        0.0        0.0        0.0        0.0     0.0     0.0

Total Circuit Losses =   54.7 +j  153.6
