Referencia/OpenDSS/IEEETestCases/13Bus/IEEE13Nodeckt_VLL.Txt

SYMMETRICAL COMPONENT PHASE-PHASE VOLTAGES BY BUS (for 3-phase buses)

Bus        Mag:   V1 (kV)    p.u.     V2 (kV)   %V2/V1    V0 (kV)    %V0/V1

sourcebus       115          1   0.003335     0.0029 1.48E-014 1.287E-014
650            4.16          1  0.0001593    0.00383 6.431E-016 1.546E-014
rg60          4.333      1.042     0.0227     0.5239 5.084E-016 1.173E-014
633           4.191      1.007    0.02989     0.7132 6.122E-016 1.461E-014
634          0.4736     0.9866   0.003667     0.7743 5.124E-017 1.082E-014
671            4.12     0.9903     0.0794      1.927 5.084E-016 1.234E-014
645           2.451     0.5892          0          0         0         0
646           2.447     0.5882          0          0         0         0
692            4.12     0.9903     0.0794      1.927 5.084E-016 1.234E-014
675           4.111     0.9882    0.08484      2.064 2.542E-016 6.184E-015
611           2.291     0.5507          0          0         0         0
652           2.324     0.5587          0          0         0         0
670           4.171      1.003    0.04627      1.109 3.216E-016 7.709E-015
632           4.201       1.01    0.02984     0.7103 3.216E-016 7.654E-015
680            4.12     0.9903     0.0794      1.927 5.084E-016 1.234E-014
684           2.337     0.5619          0          0         0         0
