Referencia/OpenDSS/IEEETestCases/13Bus/IEEE13Nodeckt_VLN_Node.Txt

LINE-GROUND and LINE-LINE VOLTAGES BY BUS & NODE

Bus       Node    VLN (kV)   Angle      pu     Base kV    Node-Node   VLL (kV)  Angle      pu

SOURCEBUS 1       66.398 /_   30.0         1   115.000        1-2     115.01 /_   60.0         1
   -      2       66.397 /_  -90.0         1   115.000        2-3        115 /_  -60.0         1
   -      3       66.396 /_  150.0         1   115.000        3-1        115 /_  180.0         1
650 ..... 1       2.4018 /_    0.0         1     4.160        1-2     4.1601 /_   30.0         1
   -      2       2.4019 /_ -120.0         1     4.160        2-3     4.1601 /_  -90.0         1
   -      3       2.4018 /_  120.0   0.99999     4.160        3-1     4.1599 /_  150.0   0.99999
RG60 .... 1       2.4767 /_    0.0    1.0312     4.160        1-2     4.2639 /_   29.8     1.025
   -      2       2.4468 /_ -120.0    1.0187     4.160        2-3     4.2638 /_  -89.8    1.0249
   -      3       2.4766 /_  120.0    1.0312     4.160        3-1     4.2896 /_  150.0    1.0312
633 ..... 1       2.3907 /_   -1.5    0.9954     4.160        1-2     4.1968 /_   28.4    1.0088
   -      2       2.4341 /_ -122.3    1.0134     4.160        2-3     4.1763 /_  -92.1    1.0039
   -      3       2.4103 /_  118.6    1.0035     4.160        3-1     4.1582 /_  148.4   0.99958
634 ..... 1      0.26905 /_   -2.2   0.97085     0.480        1-2    0.47325 /_   27.9   0.98594
   -      2      0.27563 /_ -122.8   0.99458     0.480        2-3    0.47285 /_  -92.6    0.9851
   -      3      0.27283 /_  118.1    0.9845     0.480        3-1    0.46985 /_  147.7   0.97884
671 ..... 1       2.3467 /_   -3.0   0.97705     4.160        1-2     4.1742 /_   27.7    1.0034
   -      2       2.4656 /_ -123.3    1.0266     4.160        2-3     4.1757 /_  -93.4    1.0038
   -      3       2.3773 /_  117.6   0.98981     4.160        3-1     4.1029 /_  147.1   0.98628
645 ..... 2       2.4212 /_ -122.6    1.0081     4.160        2-3     4.1627 /_  -92.1    1.0007
   -      3       2.4147 /_  118.6    1.0054     4.160
646 ..... 2       2.4171 /_ -122.7    1.0064     4.160        2-3     4.1525 /_  -92.1   0.99819
   -      3       2.4099 /_  118.6    1.0034     4.160
692 ..... 1       2.3467 /_   -3.0   0.97705     4.160        1-2     4.1742 /_   27.7    1.0034
   -      2       2.4656 /_ -123.3    1.0266     4.160        2-3     4.1757 /_  -93.4    1.0038
   -      3       2.3773 /_  117.6   0.98981     4.160        3-1     4.1029 /_  147.1   0.98628
675 ..... 1       2.3384 /_   -3.2   0.97362     4.160        1-2     4.1694 /_   27.6    1.0022
   -      2       2.4702 /_ -123.4    1.0285     4.160        2-3     4.1727 /_  -93.6     1.003
   -      3       2.3712 /_  117.6   0.98727     4.160        3-1      4.094 /_  147.0   0.98413
611 ..... 2       2.4578 /_ -123.6    1.0233     4.160
652 ..... 1       2.3255 /_   -2.9   0.96824     4.160
670 ..... 1       2.3819 /_   -1.9   0.99174     4.160        1-2     4.1957 /_   28.2    1.0086
   -      2       2.4455 /_ -122.6    1.0182     4.160        2-3     4.1802 /_  -92.5    1.0049
   -      3       2.4006 /_  118.2   0.99949     4.160        3-1     4.1433 /_  148.0   0.99598
632 ..... 1       2.3981 /_   -1.4   0.99849     4.160        1-2     4.2077 /_   28.4    1.0115
   -      2       2.4388 /_ -122.3    1.0154     4.160        2-3     4.1867 /_  -92.0    1.0064
   -      3       2.4167 /_  118.6    1.0062     4.160        3-1     4.1689 /_  148.5    1.0021
680 ..... 1       2.3467 /_   -3.0   0.97705     4.160        1-2     4.1742 /_   27.7    1.0034
   -      2       2.4656 /_ -123.3    1.0266     4.160        2-3     4.1757 /_  -93.4    1.0038
   -      3       2.3773 /_  117.6   0.98981     4.160        3-1     4.1029 /_  147.1   0.98628
684 ..... 1       2.3387 /_   -3.0   0.97374     4.160        1-2     4.1681 /_   27.7    1.0019
   -      2       2.4625 /_ -123.4    1.0253     4.160
